@<TRIPOS>MOLECULE
*****
 42 47 0 0 0
SMALL
GASTEIGER

@<TRIPOS>ATOM
      1 C           0.0000    0.0000    0.0000 C.3     1  LIG1        0.0350
      2 C           0.0000    0.0000    0.0000 C.3     1  LIG1        0.1458
      3 C           0.0000    0.0000    0.0000 C.3     1  LIG1        0.0350
      4 O           0.0000    0.0000    0.0000 O.3     1  LIG1       -0.2236
      5 C           0.0000    0.0000    0.0000 C.3     1  LIG1        0.1000
      6 H           0.0000    0.0000    0.0000 H       1  LIG1        0.0633
      7 C           0.0000    0.0000    0.0000 C.3     1  LIG1        0.0281
      8 C           0.0000    0.0000    0.0000 C.3     1  LIG1        0.0291
      9 C           0.0000    0.0000    0.0000 C.3     1  LIG1        0.0908
     10 C           0.0000    0.0000    0.0000 C.3     1  LIG1        0.0294
     11 O           0.0000    0.0000    0.0000 O.3     1  LIG1       -0.3649
     12 C           0.0000    0.0000    0.0000 C.3     1  LIG1        0.0264
     13 H           0.0000    0.0000    0.0000 H       1  LIG1        0.0361
     14 C           0.0000    0.0000    0.0000 C.3     1  LIG1        0.1072
     15 H           0.0000    0.0000    0.0000 H       1  LIG1        0.0638
     16 O           0.0000    0.0000    0.0000 O.3     1  LIG1       -0.2301
     17 C           0.0000    0.0000    0.0000 C.3     1  LIG1        0.0259
     18 C           0.0000    0.0000    0.0000 C.3     1  LIG1       -0.0014
     19 C           0.0000    0.0000    0.0000 C.3     1  LIG1       -0.0002
     20 C           0.0000    0.0000    0.0000 C.3     1  LIG1       -0.0169
     21 H           0.0000    0.0000    0.0000 H       1  LIG1        0.0319
     22 C           0.0000    0.0000    0.0000 C.3     1  LIG1        0.0222
     23 C           0.0000    0.0000    0.0000 C.3     1  LIG1        0.1048
     24 H           0.0000    0.0000    0.0000 H       1  LIG1        0.0637
     25 O           0.0000    0.0000    0.0000 O.3     1  LIG1       -0.2302
     26 C           0.0000    0.0000    0.0000 C.3     1  LIG1        0.0054
     27 H           0.0000    0.0000    0.0000 H       1  LIG1        0.0339
     28 C           0.0000    0.0000    0.0000 C.3     1  LIG1        0.0210
     29 C           0.0000    0.0000    0.0000 C.3     1  LIG1        0.0019
     30 C           0.0000    0.0000    0.0000 C.3     1  LIG1        0.0019
     31 C           0.0000    0.0000    0.0000 C.3     1  LIG1        0.1082
     32 H           0.0000    0.0000    0.0000 H       1  LIG1        0.0640
     33 O           0.0000    0.0000    0.0000 O.3     1  LIG1       -0.2299
     34 C           0.0000    0.0000    0.0000 C.3     1  LIG1        0.0264
     35 C           0.0000    0.0000    0.0000 C.3     1  LIG1        0.0020
     36 C           0.0000    0.0000    0.0000 C.3     1  LIG1       -0.0016
     37 C           0.0000    0.0000    0.0000 C.3     1  LIG1       -0.0005
     38 C           0.0000    0.0000    0.0000 C.3     1  LIG1       -0.0035
     39 C           0.0000    0.0000    0.0000 C.3     1  LIG1       -0.0003
     40 C           0.0000    0.0000    0.0000 C.3     1  LIG1       -0.0002
     41 C           0.0000    0.0000    0.0000 C.3     1  LIG1        0.0004
     42 C           0.0000    0.0000    0.0000 C.3     1  LIG1       -0.0002
@<TRIPOS>BOND
     1     1     2    1
     2     2     3    1
     3     2     4    1
     4     2     5    1
     5     5     6    1
     6     5     7    1
     7     7     8    1
     8     8     9    1
     9     9    10    1
    10     9    11    1
    11     5    11    1
    12     9    12    1
    13    12    13    1
    14    12    14    1
    15    14    15    1
    16    14    16    1
    17    14    17    1
    18    17    18    1
    19    18    19    1
    20    18    20    1
    21    20    21    1
    22    20    22    1
    23    22    23    1
    24    23    24    1
    25    23    25    1
    26    23    26    1
    27    26    27    1
    28    26    28    1
    29    28    29    1
    30    28    30    1
    31    28    31    1
    32    31    32    1
    33    31    33    1
    34    31    34    1
    35    34    35    1
    36    35    36    1
    37    26    36    1
    38    36    37    1
    39    37    38    1
    40    20    38    1
    41    36    38    1
    42    38    39    1
    43    39    40    1
    44    40    41    1
    45    18    41    1
    46    12    41    1
    47    41    42    1
